34

 C   -4.116316875318    0.899765435137   -1.028805518752
 C   -4.397501664677   -0.229819509721   -0.249440415852
 C   -2.286171655027   -0.007166367344    0.946945678783
 C   -1.993436091604    1.119545364609    0.158562276588
 O   -0.861789602787    3.185758710521    0.326595767693
 H   -2.671437390931    2.464010750884   -1.356115926699
 C   -3.500768408986   -0.667775631714    0.712392844607
 H   -5.334804939071   -0.762743421889   -0.391890086875
 H   -3.742159277163   -1.545721444538    1.307435688050
 C   -2.915177367935    1.563183906539   -0.797655327164
 C   -0.757510162333    1.968001710174    0.308829203052
 C    4.563212313012   -0.573365318244    0.076957745600
 H    5.493530680705   -0.026211570682    0.208426799494
 C    0.832891614261    0.077394128983    0.011224050838
 C    0.583500665274    1.351075191767    0.368562679034
 C    2.189147695749   -1.965928580212   -0.264726401169
 C    4.604519863955   -1.961829515002   -0.140225686369
 H    1.374678294945    2.043989003838    0.645198997339
 C    2.135351857107   -0.582353999799   -0.041478364788
 C    3.353514689664    0.097722905337    0.123061766101
 H    3.356841196903    1.172805072487    0.278199420613
 C    3.395032858957   -2.650170091113   -0.309797889280
 N    5.815187134264   -2.641176412748   -0.131299042694
 H    1.259646539312   -2.514940841818   -0.396244906533
 H    3.407160690517   -3.724922439574   -0.472930981242
 N   -1.418161682983   -0.524169791017    1.927774691644
 H   -0.707869555909    0.120747805818    2.253467617345
 H   -1.911494523365   -0.932829467017    2.713264563674
 H   -0.013539590794   -0.552689032205   -0.261293208111
 N   -5.055297233906    1.385593840174   -1.956354124245
 H    6.636062069215   -2.086742331819   -0.336860658556
 H    5.825181060533   -3.535133468234   -0.604805700964
 H   -5.622444962624    0.662190970520   -2.382749717426
 H   -4.651850695003    1.981527465859   -2.669587595087
